-------------------------------------------------------
          Amber 14 SANDER                              2014
          -------------------------------------------------------

  [-O]verwriting output

File Assignments:

 Here is the input file:

 pro 100ps LIPID 303K
 &cntrl
   imin=0, ntx=5, irest=1,
   ntc=2, ntf=2, tol=0.0000001,
   nstlim=50000, ntt=3, gamma_ln=1.0,
   temp0=303.0,
   ntpr=1000, ntwr=500000, ntwx=1000,
   dt=0.002, ig=-1,
   ntb=2, cut=10.0, ioutfm=1, ntxo=2,
   nmropt=1, ntp=3, csurften=3, gamma_ten=0.0, ninterface=2,
 /
 &wt type='DUMPFREQ', istep1=1000 /
 &wt type='END', /
DISANG=COM_dist.RST
DUMPAVE=04_Equil_dist.dat
LISTIN=POUT
LISTOUT=POUT
 /
 /
 &ewald
  skinnb=3.0,
 /

Note: ig = -1. Setting random seed to   782313 based on wallclock time in
      microseconds.

--------------------------------------------------------------------------------
   1.  RESOURCE   USE:
--------------------------------------------------------------------------------

 getting box info from netcdf restart file
 NATOM  =   17142 NTYPES =      13 NBONH =   13828 MBONA  =    3241
 NTHETH =   12463 MTHETA =    3816 NPHIH =   19731 MPHIA  =   11232
 NHPARM =       0 NPARM  =       0 NNB   =   58984 NRES   =    3097
 NBONA  =    3241 NTHETA =    3816 NPHIA =   11232 NUMBND =      18
 NUMANG =      28 NPTRA  =      35 NATYP =      18 NPHB   =       1
 IFBOX  =       1 NMXRS  =      40 IFCAP =       0 NEXTRA =       0
 NCOPY  =       0

     BOX TYPE: RECTILINEAR

--------------------------------------------------------------------------------
   2.  CONTROL  DATA  FOR  THE  RUN
--------------------------------------------------------------------------------

default_name

General flags:
     imin    =       0, nmropt  =       1

Nature and format of input:
     ntx     =       5, irest   =       1, ntrx    =       1

Nature and format of output:
     ntxo    =       2, ntpr    =    1000, ntrx    =       1, ntwr    =  500000
     iwrap   =       0, ntwx    =    1000, ntwv    =       0, ntwe    =       0
     ioutfm  =       1, ntwprt  =       0, idecomp =       0, rbornstat=      0

Potential function:
     ntf     =       2, ntb     =       2, igb     =       0, nsnb    =      25
     ipol    =       0, gbsa    =       0, iesp    =       0
     dielc   =   1.00000, cut     =  10.00000, intdiel =   1.00000

Frozen or restrained atoms:
     ibelly  =       0, ntr     =       0

Molecular dynamics:
     nstlim  =     50000, nscm    =      1000, nrespa  =         1
     t       =   0.00000, dt      =   0.00200, vlimit  =  -1.00000

Langevin dynamics temperature regulation:
     ig      =  782313
     temp0   = 303.00000, tempi   =   0.00000, gamma_ln=   1.00000

Pressure regulation:
     ntp     =       3
     pres0   =   1.00000, comp    =  44.60000, taup    =   1.00000

Constant surface tension:
     csurften  =       3
     gamma_ten =   0.00000 ninterface =       2

SHAKE:
     ntc     =       2, jfastw  =       0
     tol     =   0.00000

NMR refinement options:
     iscale  =       0, noeskp  =       1, ipnlty  =       1, mxsub   =       1
     scalm   = 100.00000, pencut  =   0.10000, tausw   =   0.10000

Ewald parameters:
     verbose =       0, ew_type =       0, nbflag  =       1, use_pme =       1
     vdwmeth =       1, eedmeth =       1, netfrc  =       1
     Box X =   47.492   Box Y =   46.648   Box Z =   76.498
     Alpha =   90.000   Beta  =   90.000   Gamma =   90.000
     NFFT1 =   48       NFFT2 =   48       NFFT3 =   80
     Cutoff=   10.000   Tol   =0.100E-04
     Ewald Coefficient =  0.27511
     Interpolation order =    4

--------------------------------------------------------------------------------
   3.  ATOMIC COORDINATES AND VELOCITIES
--------------------------------------------------------------------------------

default_name
 begin time read from input coords =   105.000 ps

           Begin reading energy term weight changes/NMR restraints
 WEIGHT CHANGES:
 DUMPFREQ   1000      0    0.000000    0.000000      0      0
                         ** No weight changes given **

 RESTRAINTS:
 Requested file redirections:
  DISANG    = COM_dist.RST
  DUMPAVE   = 04_Equil_dist.dat
  LISTIN    = POUT
  LISTOUT   = POUT
 Restraints will be read from file: COM_dist.RST
Here are comments from the DISANG input file:

******
 COM (   -1)-COM (   -1)                            NSTEP1=     0 NSTEP2=     0
 Atom ranges defining Center of Mass Group in the first position:
     1 ->     6/
 Atom ranges defining Center of Mass Group in the second position:
    67 ->    67/   185 ->   185/   303 ->   303/   421 ->   421/   539 ->   539/
   657 ->   657/   775 ->   775/   893 ->   893/  1011 ->  1011/  1129 ->  1129/
  1247 ->  1247/  1365 ->  1365/  1483 ->  1483/  1601 ->  1601/  1719 ->  1719/
  1837 ->  1837/  1955 ->  1955/  2073 ->  2073/  2191 ->  2191/  2309 ->  2309/
  2427 ->  2427/  2545 ->  2545/  2663 ->  2663/  2781 ->  2781/  2899 ->  2899/
  3017 ->  3017/  3135 ->  3135/  3253 ->  3253/  3371 ->  3371/  3489 ->  3489/
  3607 ->  3607/  3725 ->  3725/  3843 ->  3843/  3961 ->  3961/  4079 ->  4079/
  4197 ->  4197/  4315 ->  4315/  4433 ->  4433/  4551 ->  4551/  4669 ->  4669/
  4787 ->  4787/  4905 ->  4905/  5023 ->  5023/  5141 ->  5141/  5259 ->  5259/
  5377 ->  5377/  5495 ->  5495/  5613 ->  5613/  5731 ->  5731/  5849 ->  5849/
  5967 ->  5967/  6085 ->  6085/  6203 ->  6203/  6321 ->  6321/  6439 ->  6439/
  6557 ->  6557/  6675 ->  6675/  6793 ->  6793/  6911 ->  6911/  7029 ->  7029/
  7147 ->  7147/  7265 ->  7265/  7383 ->  7383/  7501 ->  7501/  7619 ->  7619/
  7737 ->  7737/  7855 ->  7855/  7973 ->  7973/  8091 ->  8091/  8209 ->  8209/
  8327 ->  8327/  8445 ->  8445/
R1 = -99.000 R2 =   0.000 R3 =   0.000 R4 =  99.000 RK2 =   2.500 RK3 =    2.500
 Rcurr:    0.390  Rcurr-(R2+R3)/2:    0.390  MIN(Rcurr-R2,Rcurr-R3):    0.390
                       Number of restraints read =     1

                  Done reading weight changes/NMR restraints

 Number of triangulated 3-point waters found:     2880

     Sum of charges from parm topology file =  -0.00043274
     Forcing neutrality...

--------------------------------------------------------------------------------
   4.  RESULTS
 NSTEP =     1000   TIME(PS) =     107.000  TEMP(K) =   299.65  PRESS =  -104.5
 Etot   =    -24407.3110  EKtot   =     11194.1934  EPtot      =    -35601.5044
 BOND   =      1063.5452  ANGLE   =      4295.1799  DIHED      =      2528.7198
 1-4 NB =       889.5126  1-4 EEL =     -1873.3505  VDWAALS    =       386.2600
 EELEC  =    -42892.1343  EHBOND  =         0.0000  RESTRAINT  =         0.7629
 EAMBER (non-restraint)  =    -35602.2673
 EKCMT  =      2729.8849  VIRIAL  =      3102.6037  VOLUME     =    165115.8831
                                                    SURFTEN    =       117.9830
                                                    Density    =         1.0130
 ------------------------------------------------------------------------------

      A V E R A G E S   O V E R      50 S T E P S

 NSTEP =    50000   TIME(PS) =     205.000  TEMP(K) =   302.48  PRESS =    35.1
 Etot   =    -24236.8121  EKtot   =     11299.7313  EPtot      =    -35536.5434
 BOND   =      1073.2478  ANGLE   =      4479.1506  DIHED      =      2535.8056
 1-4 NB =       889.7865  1-4 EEL =     -1892.4232  VDWAALS    =       346.9093
 EELEC  =    -42969.3100  EHBOND  =         0.0000  RESTRAINT  =         0.2899
 EAMBER (non-restraint)  =    -35536.8333
 EKCMT  =      2676.2459  VIRIAL  =      2552.5613  VOLUME     =    163556.7138
                                                    SURFTEN    =        48.2277
                                                    Density    =         1.0227
 ------------------------------------------------------------------------------

      R M S  F L U C T U A T I O N S

 NSTEP =    50000   TIME(PS) =     205.000  TEMP(K) =     2.60  PRESS =   175.6
 Etot   =       156.8185  EKtot   =        97.1750  EPtot      =       101.6329
 BOND   =        23.0473  ANGLE   =        53.0042  DIHED      =        24.6674
 1-4 NB =        10.7996  1-4 EEL =        16.9325  VDWAALS    =        80.3736
 EELEC  =       136.9697  EHBOND  =         0.0000  RESTRAINT  =         0.4421
 EAMBER (non-restraint)  =       101.1908
 EKCMT  =        36.9698  VIRIAL  =       619.5980  VOLUME     =       434.4067
                                                    SURFTEN    =       127.3743
                                                    Density    =         0.0027
 ------------------------------------------------------------------------------
